*Heading
** Job name: dcbenf Model name: Model-1
** Generated by: Abaqus/CAE 2019
*Preprint, echo=NO, model=NO, history=NO, contact=NO
**
** PARTS
**
*Part, name=blockpart
*End Part
**  
**
** ASSEMBLY
**
*Assembly, name=Assembly
**  
*Instance, name=blockpart-1, part=blockpart
*Node
      1,           1.,           0.,           0.
      2,           0.,           0.,           0.
      3,           0.,           0.,         -20.
      4,           1.,           0.,         -20.
      5,           1.,           1.,           0.
      6,           0.,           1.,           0.
      7,           0.,           1.,         -20.
      8,           1.,           1.,         -20.
      9,           1.,           1.,           0.
     10,           0.,           1.,           0.
     11,           0.,           1.,         -20.
     12,           1.,           1.,         -20.
     13,           0.,           2.,           0.
     14,           1.,           2.,           0.
     15,           1.,           2.,         -20.
     16,           0.,           2.,         -20.
     17,           0.,           0.,          -1.
     18,           0.,           0.,          -2.
     19,           0.,           0.,          -3.
     20,           0.,           0.,          -4.
** ... 598 like lines cut
*Element, type=C3D15
 1,   2,   1,  17,   6,   5,  55, 171, 170, 169, 172, 173, 174, 176, 175, 177
 2,  31,  30,  40,  69,  68,  78, 180, 179, 178, 181, 182, 183, 185, 184, 186
 3,   4,   3,  35,   8,   7,  73, 189, 188, 187, 190, 191, 192, 194, 193, 195
 4,   4,  35,  36,   8,  73,  74, 187, 197, 196, 192, 198, 199, 194, 195, 200
 5,  35,  34,  36,  73,  72,  74, 202, 201, 197, 203, 204, 198, 195, 205, 200
 6,  36,  34,  37,  74,  72,  75, 201, 207, 206, 204, 208, 209, 200, 205, 210
 7,  34,  33,  37,  72,  71,  75, 212, 211, 207, 213, 214, 208, 205, 215, 210
 8,  37,  33,  38,  75,  71,  76, 211, 217, 216, 214, 218, 219, 210, 215, 220
 9,  33,  32,  38,  71,  70,  76, 222, 221, 217, 223, 224, 218, 215, 225, 220
10,  38,  32,  39,  76,  70,  77, 221, 227, 226, 224, 228, 229, 220, 225, 230
11,  32,  31,  39,  70,  69,  77, 232, 231, 227, 233, 234, 228, 225, 185, 230
12,  39,  31,  40,  77,  69,  78, 231, 178, 235, 234, 183, 236, 230, 185, 186
13,  30,  29,  41,  68,  67,  79, 239, 238, 237, 240, 241, 242, 184, 243, 244
14,  42,  28,  43,  80,  66,  81, 247, 246, 245, 248, 249, 250, 252, 251, 253
15,  27,  26,  44,  65,  64,  82, 256, 255, 254, 257, 258, 259, 261, 260, 262
16,  45,  25,  46,  83,  63,  84, 265, 264, 263, 266, 267, 268, 270, 269, 271
17,  24,  23,  47,  62,  61,  85, 274, 273, 272, 275, 276, 277, 279, 278, 280
18,  48,  22,  49,  86,  60,  87, 283, 282, 281, 284, 285, 286, 288, 287, 289
19,  21,  20,  50,  59,  58,  88, 292, 291, 290, 293, 294, 295, 297, 296, 298
20,  51,  19,  52,  89,  57,  90, 301, 300, 299, 302, 303, 304, 306, 305, 307
** ... 100 like lines cut
*Nset, nset=topBlock, generate
   1,  618,    1
*Elset, elset=topBlock, generate
   1,  120,    1
*Nset, nset=botBlock, generate
   1,  618,    1
*Elset, elset=botBlock, generate
   1,  120,    1
*Nset, nset=czm, generate
   1,  618,    1
*Elset, elset=czm, generate
   1,  120,    1
** Section: czm
*Solid Section, elset=czm, material=czm
,
*End Instance
**  
*End Assembly
** 
** MATERIALS
** 
*Material, name=czm
*Elastic
1.,1.
*Material, name=steel
*Elastic
1.,1.
