*Heading
** Job name: Job-1 Model name: Model-1
** Generated by: Abaqus/CAE 2019
*Preprint, echo=NO, model=NO, history=NO, contact=NO
**
** PARTS
**
*Part, name=Part-1
*Node
1,  10.0,  10.0,  10.0
2,  10.0,  0.0,  10.0
3,  10.0,  0.0,  0.0
4,  10.0,  10.0,  0.0
5,  0.0,  0.0,  10.0
6,  0.0,  0.0,  0.0
7,  0.0,  10.0,  0.0
8,  0.0,  10.0,  10.0
9,  5.23435259,  5.09108114,  5.43200493
10,  7.61717606,  2.54554057,  7.71600246
11,  2.61717629,  7.54554081,  7.71600246
12,  5.0,  5.0,  10.0
13,  0.0,  5.0,  10.0
14,  5.0,  0.0,  10.0
15,  2.61717629,  2.54554057,  7.71600246
16,  5.0,  0.0,  0.0
17,  7.61717606,  2.54554057,  2.71600246
18,  2.61717629,  2.54554057,  2.71600246
19,  2.61717629,  7.54554081,  2.71600246
20,  0.0,  5.0,  0.0
** ... 93 like lines cut

*Element, type=C3D10, elset=Set-1
1,  1002,  1008,  1009,  1005,  1012,  1011,  1010,  1014,  1013,  1015
2,  2006,  2009,  2003,  2007,  2018,  2017,  2016,  2020,  2019,  2021
3,  3003,  3004,  3009,  3001,  3023,  3022,  3017,  3025,  3024,  3026
4,  4002,  4005,  4009,  4006,  14,  4015,  4010,  4028,  4027,  4018
5,  5005,  5009,  6,  5007,  5015,  18,  27,  5029,  5019,  20
6,  6009,  6001,  6008,  6002,  6026,  6030,  6011,  6010,  6031,  12
7,  1,  7002,  7009,  7003,  31,  7010,  26,  25,  7032,  7017
8,  8008,  8009,  5,  8007,  8011,  15,  13,  8033,  8019,  29
9,  9009,  9007,  9004,  3,  9019,  9034,  9022,  17,  21,  23
10,  7,  10004,  10008,  10009,  34,  10035,  33,  19,  10022,  10011
11,  9,  8,  1,  4,  11,  30,  26,  22,  35,  24
12,  2,  6,  9,  3,  28,  18,  10,  32,  16,  17
*USER ELEMENT, TYPE=U1, NODE=12, COORDINATES=3, PROPERTIES=6, VARIABLES=12
1, 2, 3
*Element, type=U1, ELSET=ONE
1001,  1002,  1008,  1009,  1012,  1011,  1010,  6002,  6008,  6009,  12,  6011,  6010
1002,  1005,  1009,  1008,  1015,  1011,  1013,  5,  8009,  8008,  15,  8011,  13
1003,  1009,  1005,  1002,  1015,  1014,  1010,  4009,  4005,  4002,  4015,  14,  4010
1004,  2006,  2009,  2003,  2018,  2017,  2016,  6,  9,  3,  18,  17,  16
1005,  2007,  2003,  2009,  2021,  2017,  2019,  9007,  3,  9009,  21,  17,  9019
1006,  2006,  2007,  2009,  2020,  2019,  2018,  6,  5007,  5009,  20,  5019,  18
1007,  3003,  3004,  3009,  3023,  3022,  3017,  3,  9004,  9009,  23,  9022,  17
1008,  3001,  3009,  3004,  3026,  3022,  3024,  1,  9,  4,  26,  22,  24
1009,  3009,  3001,  3003,  3026,  3025,  3017,  7009,  1,  7003,  26,  25,  7017
1010,  4006,  4009,  4005,  4018,  4015,  4027,  6,  5009,  5005,  18,  5015,  27
1011,  4009,  4006,  4002,  4018,  4028,  4010,  9,  6,  2,  18,  28,  10
1012,  5005,  5007,  5009,  5029,  5019,  5015,  5,  8007,  8009,  29,  8019,  15
1013,  6009,  6001,  6008,  6026,  6030,  6011,  9,  1,  8,  26,  30,  11
1014,  6009,  6002,  6001,  6010,  6031,  6026,  7009,  7002,  1,  7010,  31,  26
1015,  7003,  7009,  7002,  7017,  7010,  7032,  3,  9,  2,  17,  10,  32
1016,  8008,  8007,  8009,  8033,  8019,  8011,  10008,  7,  10009,  33,  19,  10011
1017,  9009,  9007,  9004,  9019,  9034,  9022,  10009,  7,  10004,  19,  34,  10022
1018,  10009,  10008,  10004,  10011,  10035,  10022,  9,  8,  4,  11,  35,  22
*UEL PROPERTY, ELSET=ONE
4000.,4000.,60.,80.,50.,50.
1, 1, 1
** Section: Section-1
*Solid Section, elset=Set-1, material=Material-1
,
*End PART
**  
**  
**
** ASSEMBLY
**
*Assembly, name=Assembly
**  
*Instance, name=Part-1-1, part=Part-1
*End Instance
*Nset, nset=Set-1, instance=Part-1-1
  6001, 6002,6008,6030,6031,12,1002, 1005,1008,1012,1013,1014
*Nset, nset=Set-2, instance=Part-1-1
 9007,9004,9003,9034,23,21,2006,2003,2021,2007,2021,2020,2016
*End Assembly
** 
** MATERIALS
** 
*Material, name=Material-1
*Elastic
 2e+06, 0.3
** ----------------------------------------------------------------
** 
** STEP: Step-1
** 
*Step, name=Step-1, nlgeom=YES, inc=1000
*Static
0.0001, 1., 1e-07, 0.01
*Solution Technique, type=QUASI-NEWTON
** 
** BOUNDARY CONDITIONS
** 
** Name: BC-1 Type: Displacement/Rotation
*Boundary
Set-1, 3, 3, 0.1
** Name: BC-2 Type: Displacement/Rotation
*Boundary
set-1,1,1
Set-2, 1,6
** 
** OUTPUT REQUESTS
** 
*Restart, write, frequency=0
** 
** FIELD OUTPUT: F-Output-1
** 
*Output, field, variable=PRESELECT
** 
** HISTORY OUTPUT: H-Output-1
** 
*Output, history, variable=PRESELECT
*End Step
