$# LS-DYNA Keyword file created by LS-PrePost(R) V4.8.16 - 07Jun2021
$# Created on Jun-25-2021 (09:38:15)
*KEYWORD   
*TITLE
$#                                                                         title
LS-DYNA keyword deck by LS-PrePost
*CONTROL_IMPLICIT_GENERAL
$#  imflag       dt0    imform      nsbs       igs     cnstn      form    zero_v
         1      0.01         0         0         0         0         0         0
*CONTROL_CONTACT
$#  slsfac    rwpnal    islchk    shlthk    penopt    thkchg     orien    enmass
       0.0       0.0         0         0         0         0         0         0
$#  usrstr    usrfrc     nsbcs    interm     xpene     ssthk      ecdt   tiedprj
         0         0         0         0       0.0         0         0         0
$#   sfric     dfric       edc       vfc        th     th_sf    pen_sf      
       0.0       0.0       0.0       0.0       0.0       0.0       0.0
$#  ignore    frceng   skiprwg    outseg   spotstp   spotdel   spothin       
         2         0         0         0         0         0       0.0
$#    isym    nserod    rwgaps    rwgdth     rwksf      icov    swradf    ithoff
         0         0         0       0.0       0.0         0       0.0         0
$#  shledg    pstiff    ithcnt    tdcnof     ftall    unused    shltrw    igactc
         1         0         0         0         0                 0.0         0
*CONTROL_TERMINATION
$#  endtim    endcyc     dtmin    endeng    endmas     nosol     
       1.0         0     0.001       0.0       0.0         0
*CONTROL_TIMESTEP
$#  dtinit    tssfac      isdo    tslimt     dt2ms      lctm     erode     ms1st
      0.01       0.0         0       0.0       0.0         0         0         0
$#  dt2msf   dt2mslc     imscl    unused    unused     rmscl    unused      ihdo
       0.0         0         0                           0.0                  44
*DATABASE_GLSTAT
$#      dt    binary      lcur     ioopt     
     0.005         1         0         0
*DATABASE_MATSUM
$#      dt    binary      lcur     ioopt     
     0.005         1         0         0
*DATABASE_BINARY_D3PLOT
$#      dt      lcdt      beam     npltc    psetid      
      0.05         0         0         0         0
$#   ioopt      rate    cutoff    window      type      pset    
         0       0.0       0.0       0.0         0         0
*PART
$#                                                                         title
SET-1
$#     pid     secid       mid     eosid      hgid      grav    adpopt      tmid
         1         1         1         0         0         0         0         0
*SECTION_SOLID_TITLE
MATERIAL-1
$#   secid    elform       aet    unused    unused    unused    cohoff    unused
         1         1         0                                       0          
*MAT_ELASTIC_TITLE
MATERIAL-1
$#     mid        ro         e        pr        da        db  not used        
         1       0.02.000000E8       0.3       0.0       0.0       0.0
*PART
$#                                                                         title
cohesive
$#     pid     secid       mid     eosid      hgid      grav    adpopt      tmid
         2         0         0         0         0         0         0         0
*MAT_ELASTIC_TITLE
MATERIAL-2
$#     mid        ro         e        pr        da        db  not used        
         2       0.0    4000.0       0.3       0.0       0.0       0.0
*MAT_ELASTIC_TITLE
UEL
$#     mid        ro         e        pr        da        db  not used        
         3       0.03.6736E-39       0.0       0.0       0.0       0.0
*MAT_ELASTIC_TITLE
CZM
$#     mid        ro         e        pr        da        db  not used        
         4       0.0    4000.0       0.3       0.0       0.0       0.0
*DEFINE_CURVE_TITLE
BOUNDARY
$#    lcid      sidr       sfa       sfo      offa      offo    dattyp     lcint
         1         0       1.0       1.0       0.0       0.0         0         0
$#                a1                  o1  
                -1.0                 1.0
                 1.0                 1.0
*DEFINE_CURVE_TITLE
BOUNDARY
$#    lcid      sidr       sfa       sfo      offa      offo    dattyp     lcint
         2         0       1.0       1.0       0.0       0.0         0         0
$#                a1                  o1  
                -1.0                 1.0
                 1.0                 1.0
*DEFINE_CURVE_TITLE
BOUNDARY
$#    lcid      sidr       sfa       sfo      offa      offo    dattyp     lcint
         3         0       1.0       1.0       0.0       0.0         0         0
$#                a1                  o1  
                -1.0                 1.0
                 1.0                 1.0
*DEFINE_CURVE_TITLE
BOUNDARY
$#    lcid      sidr       sfa       sfo      offa      offo    dattyp     lcint
         4         0       1.0       1.0       0.0       0.0         0         0
$#                a1                  o1  
                -1.0                 1.0
                 1.0                 1.0
*DEFINE_CURVE_TITLE
BOUNDARY
$#    lcid      sidr       sfa       sfo      offa      offo    dattyp     lcint
         5         0       1.0       1.0       0.0       0.0         0         0
$#                a1                  o1  
                -1.0                 1.0
                 1.0                 1.0
*DEFINE_CURVE_TITLE
BOUNDARY
$#    lcid      sidr       sfa       sfo      offa      offo    dattyp     lcint
         6         0       1.0       1.0       0.0       0.0         0         0
$#                a1                  o1  
                -1.0                 1.0
                 1.0                 1.0
*DEFINE_CURVE_TITLE
BOUNDARY
$#    lcid      sidr       sfa       sfo      offa      offo    dattyp     lcint
         7         0       1.0       1.0       0.0       0.0         0         0
$#                a1                  o1  
                -1.0                 1.0
                 1.0                 1.0
*DEFINE_CURVE_TITLE
BOUNDARY
$#    lcid      sidr       sfa       sfo      offa      offo    dattyp     lcint
         8         0       1.0       1.0       0.0       0.0         0         0
$#                a1                  o1  
                -1.0                 1.0
                 1.0                 1.0
*DEFINE_CURVE_TITLE
BOUNDARY
$#    lcid      sidr       sfa       sfo      offa      offo    dattyp     lcint
         9         0       1.0       1.0       0.0       0.0         0         0
$#                a1                  o1  
                -1.0                 1.0
                 1.0                 1.0
*ELEMENT_SOLID (ten nodes format)
$#   eid     pid   
       1       1
$#    n1      n2      n3      n4      n5      n6      n7      n8      n9     n10
    1124    1202    1176     812     392     393     394     395      74      73
       2       1
    1175    1202    1107    1176     396     397     398     399      77      69
       3       1
     643     646     645     840     400     401     402     403      83      82
       4       1
    1315    1064     792     840     404     405     406     407      86      82
       5       1
     866    1088    1045    1044     408     409     410     411      92      91
       6       1
    1136    1146    1138    1137     412     413     414     415      98      97
       7       1
    1136    1137    1051    1083     416     417     418     419     103     102
       8       1
     922     988     924     871     420     421     422     423     107      95
       9       1
    1275    1136    1051     861     424     425     426     427     111      89
      10       1
    1056    1262     792    1228     428     429     430     431     117     116
      11       1
$ ... 395 like lines cut
*ELEMENT_SOLID
$#   eid     pid      n1      n2      n3      n4      n5      n6      n7      n8
     209       2     675     676    1138    1138    1249    1248    1245    1245
     210       2    1089    1091    1090    1090    1467    1465    1466    1466
     211       2    1069     441     443     443    1332     956     959     959
     212       2     784    1236     787     787    1239    1236    1240    1240
     213       2    1124     539     537     537    1124     751     753     753
     214       2    1202     397     399     399    1202     780     782     782
     215       2    1112    1114    1113    1113    1342    1340    1341    1341
     216       2     667    1431     670     670    1172    1431    1174    1174
     217       2     904     906     905     905    1313    1311    1312    1312
     218       2     904     905    1309    1309    1313    1312    1309    1309
     219       2     675     677     676     676    1249    1247    1248    1248
     220       2     571     573     572     572    1199    1197    1198    1198
     221       2     811     502     504     504    1078    1081    1080    1080
     222       2     833     576     578     578     833     836     839     839
     223       2    1098    1099    1362    1362    1366    1365    1362    1362
     224       2     746     538     540     540     746     750     748     748
     225       2    1098    1100    1099    1099    1366    1364    1365    1365
     226       2     961    1189     964     964    1192    1189    1193    1193
     227       2     538     539     835     835     752     751     835     835
     228       2    1120    1183    1123    1123    1184    1183    1185    1185
$ ... 204 like lines cut
*NODE
$#   nid               x               y               z      tc      rc  
       1             0.0             0.0            10.0       0       0
       2             0.0            10.0            10.0       0       0
       3             0.0           11.25            10.0       0       0
       4             0.0           21.25            10.0       0       0
       5             0.0            10.0             0.0       0       0
       6             0.0           11.25             0.0       0       0
       7             0.0           21.25             0.0       0       0
       8             0.0             0.0             0.0       0       0
       9            10.0           21.25            10.0       0       0
      10            10.0           21.25             0.0       0       0
      11            10.0             0.0             0.0       0       0
      12            10.0            10.0             0.0       0       0
      13            10.0           11.25             0.0       0       0
      14            10.0             0.0            10.0       0       0
      15            10.0            10.0            10.0       0       0
      16            10.0           11.25            10.0       0       0
      17             0.0             5.0            10.0       0       0
      18             0.0           16.25            10.0       0       0
      19             0.0           21.25             5.0       0       0
      20             0.0             5.0             0.0       0       0
$ ... 1448 like lines cut
*SET_NODE_LIST_TITLE
PART-6-1.SET-1
$#     sid       da1       da2       da3       da4    solver      
         1       0.0       0.0       0.0       0.0          
$#    nid1      nid2      nid3      nid4      nid5      nid6      nid7      nid8
         1         2         3         4         5         6         7         8
         9        10        11        12        13        14        15        16
        17        18        19        20        21        22        23        24
        25        26        27        28        29        30        31        32
        33        34        35        36        37        38        39        40
        41        42        43        44        45        46        47        48
        49        50        51        52        53        54        55        56
        57        58        59        60        61        62        63        64
        65        66        67        68        69        70        71        72
        73        74        75        76        77        78        79        80
        81        82        83        84        85        86        87        88
        89        90        91        92        93        94        95        96
        97        98        99       100       101       102       103       104
       105       106       107       108       109       110       111       112
       113       114       115       116       117       118       119       120
       121       122       123       124       125       126       127       128
       129       130       131       132       133       134       135       136
       137       138       139       140       141       142       143       144
       145       146       147       148       149       150       151       152
       153       154       155       156       157       158       159       160
$ ... 29 like lines cut
*SET_NODE_LIST_TITLE
SET-1
$#     sid       da1       da2       da3       da4    solver      
         2       0.0       0.0       0.0       0.0          
$#    nid1      nid2      nid3      nid4      nid5      nid6      nid7      nid8
         1         8        11        14        22        26        29        30
        42       123       126       226       227       229       230       231
       248       249       250       251       262       268       355       364
       372         0         0         0         0         0         0         0
*SET_NODE_LIST_TITLE
SET-2
$#     sid       da1       da2       da3       da4    solver      
         3       0.0       0.0       0.0       0.0          
$#    nid1      nid2      nid3      nid4      nid5      nid6      nid7      nid8
         4         7         9        10        19        23        24        25
        37       100       101       103       111       147       154       176
       177       349       350       351       353       357       370       371
       375         0         0         0         0         0         0         0
*SET_SOLID_TITLE
SET-1
$#     sid    solver      
         1          
$#      k1        k2        k3        k4        k5        k6        k7        k8
         1         2         3         4         5         6         7         8
         9        10        11        12        13        14        15        16
        17        18        19        20        21        22        23        24
        25        26        27        28        29        30        31        32
        33        34        35        36        37        38        39        40
        41        42        43        44        45        46        47        48
        49        50        51        52        53        54        55        56
        57        58        59        60        61        62        63        64
        65        66        67        68        69        70        71        72
        73        74        75        76        77        78        79        80
        81        82        83        84        85        86        87        88
        89        90        91        92        93        94        95        96
        97        98        99       100       101       102       103       104
       105       106       107       108       109       110       111       112
       113       114       115       116       117       118       119       120
       121       122       123       124       125       126       127       128
       129       130       131       132       133       134       135       136
       137       138       139       140       141       142       143       144
       145       146       147       148       149       150       151       152
       153       154       155       156       157       158       159       160
$ ... 6 like lines cut
*SET_SOLID_TITLE
SET-1
$#     sid    solver      
         2          
$#      k1        k2        k3        k4        k5        k6        k7        k8
        43        44        49       117       132       149       190       198
*SET_SOLID_TITLE
SET-2
$#     sid    solver      
         3          
$#      k1        k2        k3        k4        k5        k6        k7        k8
         7       108       111       141       143       146       153       208
*END
