*Heading
** Job name: Job-1 Model name: Model-1
** Generated by: Abaqus/CAE 2019
*Preprint, echo=NO, model=NO, history=NO, contact=NO
**
** PARTS
**
*Part, name=Part-6
*End Part
**  
**
** ASSEMBLY
**
*Assembly, name=Assembly
**  
*Instance, name=Part-6-1, part=Part-6
*Node
      1,          10.,           0.,          10.
      2,           0.,           0.,          10.
      3,           0.,           0.,           0.
      4,          10.,           0.,           0.
      5,          10.,           5.,          10.
      6,           0.,           5.,          10.
      7,           0.,           5.,           0.
      8,          10.,           5.,           0.
      9,          10.,          10.,          10.
     10,           0.,          10.,          10.
     11,           0.,          10.,           0.
     12,          10.,          10.,           0.
     13,          10.,          15.,          10.
     14,           0.,          15.,          10.
     15,           0.,          15.,           0.
     16,          10.,          15.,           0.
     17,          10.,          20.,          10.
     18,           0.,          20.,          10.
     19,           0.,          20.,           0.
     20,          10.,          20.,           0.
** ... 41 like lines cut
*Element, type=C3D15
1,  5,  6,  8,  1,  2,  4, 23, 22, 21, 24, 25, 26, 28, 27, 29
2,  8,  6,  7,  4,  2,  3, 22, 31, 30, 25, 32, 33, 29, 27, 34
3,  9, 10, 12,  5,  6,  8, 37, 36, 35, 23, 22, 21, 39, 38, 40
4, 12, 10, 11,  8,  6,  7, 36, 42, 41, 22, 31, 30, 40, 38, 43
5, 13, 14, 16,  9, 10, 12, 46, 45, 44, 37, 36, 35, 48, 47, 49
6, 16, 14, 15, 12, 10, 11, 45, 51, 50, 36, 42, 41, 49, 47, 52
7, 17, 18, 20, 13, 14, 16, 55, 54, 53, 46, 45, 44, 57, 56, 58
8, 20, 18, 19, 16, 14, 15, 54, 60, 59, 45, 51, 50, 58, 56, 61
*Nset, nset=Set-1, generate
  1,  61,   1
*Elset, elset=Set-1, generate
 1,  8,  1
** Section: Section-1
*Solid Section, elset=Set-1, material=Material-1
,
*End Instance
**  
*Nset, nset=Set-33, instance=Part-6-1
  1,  2,  3,  4, 24, 25, 26, 32, 33
*Elset, elset=Set-33, instance=Part-6-1
 1, 2
*Nset, nset=Set-34, instance=Part-6-1
 17, 18, 19, 20, 53, 54, 55, 59, 60
*Elset, elset=Set-34, instance=Part-6-1
 7, 8
*Nset, nset=Set-35, instance=Part-6-1, generate
  1,  61,   1
*Elset, elset=Set-35, instance=Part-6-1, generate
 1,  8,  1
*End Assembly
** 
** MATERIALS
** 
*Material, name=Material-1
*Elastic
4000., 0.3
*Material, name=Material-2
*Elastic
4000., 0.3
*Material, name=UEL
*User Material, constants=6
4000.,4000.,   8.,   8.,  50.,  50.
*User Output Variables
     12,
*Material, name=czm
*Damage Initiation, criterion=QUADE
50.,50.,50.
*Damage Evolution, type=ENERGY, softening=EXPONENTIAL
40.,
*Elastic
4000., 0.3
** 
** BOUNDARY CONDITIONS
** 
** Name: BC-1 Type: Displacement/Rotation
*Boundary
Set-33, 1, 1
Set-33, 2, 2
Set-33, 3, 3
Set-33, 4, 4
Set-33, 5, 5
Set-33, 6, 6
** Name: BC-2 Type: Displacement/Rotation
*Boundary
Set-34, 2, 2
** ----------------------------------------------------------------
** 
** STEP: Step-1
** 
*Step, name=Step-1, nlgeom=YES, inc=1000
*Static
0.01, 1., 1e-05, 1.
*Solution Technique, type=QUASI-NEWTON
** 
** BOUNDARY CONDITIONS
** 
** Name: BC-2 Type: Displacement/Rotation
*Boundary
Set-34, 2, 2, -0.04
** 
** OUTPUT REQUESTS
** 
*Restart, write, frequency=0
** 
** FIELD OUTPUT: F-Output-1
** 
*Output, field, variable=PRESELECT
** 
** HISTORY OUTPUT: H-Output-1
** 
*Output, history, variable=PRESELECT
*End Step
