*NODE
1, 0.000000E+00, 0.000000E+00, 1.000000E+01
2, 0.000000E+00, 1.000000E+01, 1.000000E+01
3, 0.000000E+00, 1.125000E+01, 1.000000E+01
4, 0.000000E+00, 2.125000E+01, 1.000000E+01
5, 0.000000E+00, 1.000000E+01, 0.000000E+00
6, 0.000000E+00, 1.125000E+01, 0.000000E+00
7, 0.000000E+00, 2.125000E+01, 0.000000E+00
8, 0.000000E+00, 0.000000E+00, 0.000000E+00
9, 1.000000E+01, 2.125000E+01, 1.000000E+01
10, 1.000000E+01, 2.125000E+01, 0.000000E+00
11, 1.000000E+01, 0.000000E+00, 0.000000E+00
12, 1.000000E+01, 1.000000E+01, 0.000000E+00
13, 1.000000E+01, 1.125000E+01, 0.000000E+00
14, 1.000000E+01, 0.000000E+00, 1.000000E+01
15, 1.000000E+01, 1.000000E+01, 1.000000E+01
16, 1.000000E+01, 1.125000E+01, 1.000000E+01
17, 0.000000E+00, 5.000000E+00, 1.000000E+01
18, 0.000000E+00, 1.625000E+01, 1.000000E+01
19, 0.000000E+00, 2.125000E+01, 5.000000E+00
20, 0.000000E+00, 5.000000E+00, 0.000000E+00
** ... 1448 like lines cut
*NSET,NSET=PART-6-1_SET-1,GENERATE
1,391
*NSET,NSET=SET-1
1,8,11,14,22,26,29,30,42,123,126,226,227,229,230,231
248,249,250,251,262,268,355,364,372
*NSET,NSET=SET-2
4,7,9,10,19,23,24,25,37,100,101,103,111,147,154,176
177,349,350,351,353,357,370,371,375
*ELEMENT,TYPE=C3D8
209,675,676,1138,1138,1249,1248,1245,1245
210,1089,1091,1090,1090,1467,1465,1466,1466
211,1069,441,443,443,1332,956,959,959
212,784,1236,787,787,1239,1236,1240,1240
213,1124,539,537,537,1124,751,753,753
214,1202,397,399,399,1202,780,782,782
215,1112,1114,1113,1113,1342,1340,1341,1341
216,667,1431,670,670,1172,1431,1174,1174
217,904,906,905,905,1313,1311,1312,1312
218,904,905,1309,1309,1313,1312,1309,1309
219,675,677,676,676,1249,1247,1248,1248
220,571,573,572,572,1199,1197,1198,1198
221,811,502,504,504,1078,1081,1080,1080
222,833,576,578,578,833,836,839,839
223,1098,1099,1362,1362,1366,1365,1362,1362
224,746,538,540,540,746,750,748,748
225,1098,1100,1099,1099,1366,1364,1365,1365
226,961,1189,964,964,1192,1189,1193,1193
227,538,539,835,835,752,751,835,835
228,1120,1183,1123,1123,1184,1183,1185,1185
** ... 204 like lines cut
*ELSET,ELSET=SET-1,GENERATE
1,208
*ELSET,ELSET=SET-1_1
43,44,49,117,132,149,190,198
*ELSET,ELSET=SET-2
7,108,111,141,143,146,153,208
*MATERIAL,NAME=MATERIAL-1
*DENSITY
0
*ELASTIC
2E+08,0.3
*MATERIAL,NAME=MATERIAL-2
*DENSITY
0
*ELASTIC
4E+03,0.3
*MATERIAL,NAME=UEL
*DENSITY
0
*ELASTIC
3.67E-39,0
*MATERIAL,NAME=CZM
*DENSITY
0
*ELASTIC
4E+03,0.3
*SOLID SECTION,ELSET=SET-1,MATERIAL=MATERIAL-1
