*Heading
** Job name: Job-1 Model name: Model-1
** Generated by: Abaqus/CAE 2019
** abaqus job=test2 user=UMAT.for
*Preprint, echo=NO, model=NO, history=NO, contact=NO
**
** PARTS
**
*Part, name=Part-3
*Node
      1,          10.,          10.,           0.
      2,           0.,           0.,           0.
      3,          10.,           0.,           0.
      4,          10.,          10.,           5.
      5,           0.,           0.,           5.
      6,          10.,           0.,           5.
      7,           5.,           0.,           0.
      8,           5.,           5.,           0.
      9,          10.,           5.,           0.
     10,          10.,           5.,           5.
     11,           5.,           5.,           5.
     12,           5.,           0.,           5.
     13,          10.,          10.,          2.5
     14,          10.,           0.,          2.5
     15,           0.,           0.,          2.5
     16,          10.,          10.,          0.
     17,           0.,           0.,          0.
     18,          10.,           0.,          0.
     22,           5.,           0.,          0.
     23,           5.,           5.,          0.
** ... 10 like lines cut

     46,          10.,          10.,          45.
     47,           0.,           0.,          45.
     48,          10.,           0.,          45.
     49,          10.,           5.,           45.
     50,           5.,           5.,           45.
     51,           5.,           0.,           45.
     52,          10.,          10.,         22.5
     53,          10.,           0.,         22.5
     54,           0.,           0.,         22.5

     55,          10.,          10.,          -45.
     56,           0.,           0.,          -45.
     57,          10.,           0.,          -45.
     58,           5.,           0.,          -45
     59,           5.,           5.,          -45
     60,          10.,           5.,          -45
     61,          10.,          10.,         -22.5
     62,          10.,           0.,         -22.5
     63,           0.,           0.,         -22.5
*Element, type=C3D15
1,  3,  1,  2,  6,  4,  5,  9,  8,  7, 10, 11, 12, 14, 13, 15
3, 33, 31, 32, 18, 16, 17, 39, 38, 37, 24, 23, 22, 44, 43, 45
4, 6,  4,  5, 48, 46, 47, 10, 11, 12, 49, 50,51, 53,52,54
5, 57, 55, 56, 33, 31, 32, 60,59,58,39, 38, 37,  62,61,63
*USER ELEMENT, TYPE=U1, NODE=12, COORDINATES=3, PROPERTIES=6, VARIABLES=12
1, 2, 3
*Element, type=U1, ELSET=ONE
2, 3, 1,  2,  9,  8,  7,  18,  16,  17, 24, 23, 22
** 
** MATERIALS
**      cn=PROPS(1)
**      ct=PROPS(2)
**      Gn=PROPS(3)
**      Gt=PROPS(4)
**      Qn0=PROPS(5)
**      Qt0=PROPS(6)
*UEL PROPERTY, ELSET=ONE
5e8,4000.,2e18,8.8,2e8,50
1, 1, 1
*Elset, elset=Set-1
 1, 3 ,4,5
** Section: Section-1
*Solid Section, elset=Set-1, material=Material-1
,
** Section: Section-1
*Solid Section, elset=Set-2, material=Material-2
,
*End Part
**  
**
** ASSEMBLY
**
*Assembly, name=Assembly
**  
*Instance, name=Part-3-1, part=Part-3
*End Instance
**
*Nset, nset=Set-12, instance=Part-3-1
 57, 55, 56,60,59,58
*Nset, nset=Set-13, instance=Part-3-1
  48, 46, 47, 49, 50,51
  
*Nset, nset=Set-14, instance=Part-3-1
 31, 32, 33, 37, 38, 39
*Nset, nset=Set-15, instance=Part-3-1
  4,  5,  6, 10, 11, 12
*Nset, nset=Set-16, instance=Part-3-1
 3,  1,  2,  6,  4,  5,  9,  8,  7, 10, 11, 12, 14, 13, 
 15, 33, 31, 32, 18, 16, 17, 39, 38, 37, 24, 23, 22, 44, 43, 45
*End Assembly
** 
** MATERIALS
** 
*Material, name=Material-1
*Elastic
205000e3, 0.3
*Material, name=Material-2
*Elastic
205000e3, 0.3
** ----------------------------------------------------------------
** 
** STEP: Step-1
** 
*Step, name=Step-1, nlgeom=YES, inc=5000
*Static
1e-4, 1., 1e-12, 1.
*SOLUTION,TYPE=QUASI-NEWTON
** 
** BOUNDARY CONDITIONS
** 
** Name: BC-1 Type: Displacement/Rotation
*Boundary
Set-12, 1, 6
Set-16, 1, 2
Set-13, 1, 2
** Name: BC-2 Type: Displacement/Rotation
*Boundary
**Set-15, 1, 1, 0.1
**Set-15, 2, 2, 0.1
Set-13, 3, 3, 10.
**
** OUTPUT REQUESTS
** 
*Restart, write, frequency=0
** 
** FIELD OUTPUT: F-Output-1
** 
*Output, field, variable=PRESELECT
** 
** HISTORY OUTPUT: H-Output-1
** 
*Output, history, variable=PRESELECT
*End Step
** 
** STEP: Step-2
** 
**Step, name=Step-2, nlgeom=YES, inc=5000
**Static
**1e-4, 2., 1e-12, 1.
**SOLUTION,TYPE=QUASI-NEWTON
** 
** BOUNDARY CONDITIONS
** 
** Name: BC-1 Type: Displacement/Rotation
**Boundary
**Set-14, 1, 6
**Set-16, 1, 2
**Set-15, 1, 2
** Name: BC-2 Type: Displacement/Rotation
**Boundary
**Set-15, 1, 1, 0.1
**Set-15, 2, 2, 0.1
**Set-15, 3, 3, 3e-1
**
** OUTPUT REQUESTS
** 
**Restart, write, frequency=0
** 
** FIELD OUTPUT: F-Output-1
** 
**Output, field, variable=PRESELECT
** 
** HISTORY OUTPUT: H-Output-1
** 
**Output, history, variable=PRESELECT
**End Step