*Heading
** Job name: test Model name: Model-1
** Generated by: Abaqus/CAE 2019
*Preprint, echo=NO, model=NO, history=NO, contact=NO
**
** PARTS
**
*Part, name=Part-4
*Node
      1,     0.  ,      0.,        -0. 
      2,     0.  ,     0.,        -2.5  
      3,     0.  ,     5.,         -0.  
      4,     0.  ,    10.,         -0.  
      5,     0.  ,    10.,        -2.5  
      6,     0.  ,     0.,         -5.  
      7,     0.  ,     5.,         -5.  
      8,     0.  ,    10.,         -5.  
      9,     0.  ,     0.,        -10.  
     10,     0.  ,     0.,        -7.5  
     11,     0.  ,     5.,        -10.  
     12,     0.  ,    10.,        -10.  
     13,     0.  ,    10.,        -7.5  
     14,     0.  ,     0.,        -10.  
     16,     0.   ,     0,        -12.5 
     17,     0.  ,     5.,        -10.  
     18,     0.  ,    10.,        -10.  
     20,     0.   ,    10,        -12.5 
     21,     0.  ,     0.,        -15.  
     22,     0.  ,     5.,        -15.  
** ... 50 like lines cut
*Element, type=C3D15,elset=Set-1
1, 47,  4, 50, 52,  8, 54, 30, 31, 49, 33, 34, 53, 48,  5, 51
2,  1,  4, 47,  6,  8, 52,  3, 30, 29,  7, 33, 32,  2,  5, 48
3, 52,  8, 54, 55, 12, 58, 33, 34, 53, 36, 37, 57, 56, 13, 59
4,  6,  8, 52,  9, 12, 55,  7, 33, 32, 11, 36, 35, 10, 13, 56
 7, 60, 18, 64, 67, 23, 69, 39, 40, 63, 42, 43, 68, 62, 20, 66
 8, 14, 18, 60, 21, 23, 67, 17, 39, 38, 22, 42, 41, 16, 20, 62
 9, 67, 23, 69, 70, 27, 73, 42, 43, 68, 45, 46, 72, 71, 28, 74
10, 21, 23, 67, 24, 27, 70, 22, 42, 41, 26, 45, 44, 25, 28, 71
*USER ELEMENT, TYPE=U1, NODE=12, COORDINATES=3, PROPERTIES=6, VARIABLES=12
1, 2, 3
*Element, type=U1, ELSET=ONE
5, 64,60,18,63,39,40,58,55,12,57,36,37
6,  14,18,60,17,39,38,9,12,55,11,36,35
** MATERIALS
**      cn=PROPS(1)
**      ct=PROPS(2)
**      Gn=PROPS(3)
**      Gt=PROPS(4)
**      Qn0=PROPS(5)
**      Qt0=PROPS(6)
*UEL PROPERTY, ELSET=ONE
10.,10.,0.01,0.01,0.1,0.1
1, 1, 1
** Section: Section-1
*Solid Section, elset=Set-1, material=Material-1
,
*End Part
**  
**
** ASSEMBLY
**
*Assembly, name=Assembly
**  
*Instance, name=Part-4-1, part=Part-4
*End Instance
**  
*Nset, nset=Set-23, instance=Part-4-1
  1,  3,  4, 29, 30, 31, 47, 49, 50
*Nset, nset=Set-24, instance=Part-4-1
 24, 26, 27, 44, 45, 46, 70, 72, 73
 *Nset, nset=Set-25, instance=Part-4-1
 47,  4, 50, 52,  8, 54, 30, 31, 49, 33, 34, 53, 48,  5, 51,
 1,  4, 47,  6,  8, 52,  3, 30, 29,  7, 33, 32,  2,  5, 48,
52,  8, 54, 55, 12, 58, 33, 34, 53, 36, 37, 57, 56, 13, 59,
 6,  8, 52,  9, 12, 55,  7, 33, 32, 11, 36, 35, 10, 13, 56,
 60, 18, 64, 67, 23, 69, 39, 40, 63, 42, 43, 68, 62, 20, 66,
  14, 18, 60, 21, 23, 67, 17, 39, 38, 22, 42, 41, 16, 20, 62,
  67, 23, 69, 70, 27, 73, 42, 43, 68, 45, 46, 72, 71, 28, 74,
 21, 23, 67, 24, 27, 70, 22, 42, 41, 26, 45, 44, 25, 28, 71
*End Assembly
** 
** MATERIALS
** 
*Material, name=Material-1
*Elastic
 100, 0.25
** ----------------------------------------------------------------
** 
** STEP: Step-1
** 
*Step, name=Step-1, nlgeom=YES, inc=5000
*Static
1e-5, 1., 1e-30, 1e-1
*Solution Technique, type=QUASI-NEWTON
** 
** BOUNDARY CONDITIONS
** 
** Name: BC-1 Type: Displacement/Rotation
*Boundary
Set-23, 1,6
Set-24, 3,3
** Name: BC-2 Type: Displacement/Rotation
*Boundary
Set-24, 2,2, -5
** 
** OUTPUT REQUESTS
** 
*Restart, write, frequency=0
** 
** FIELD OUTPUT: F-Output-1
** 
*Output, field, variable=PRESELECT
** 
** HISTORY OUTPUT: H-Output-1
** 
*Output, history, variable=PRESELECT
*End Step
